<?xml version="1.0" encoding="UTF-8"?>

<!-- generated on 10/26/20 16:55:41 by Eclipse SUMO netedit Version 1.7.0
<configuration xmlns:xsi="http://www.w3.org/2001/XMLSchema-instance" xsi:noNamespaceSchemaLocation="http://sumo.dlr.de/xsd/netconvertConfiguration.xsd">

    <input>
        <sumo-net-file value="C:\Code\PolyHack2020\trafficmap\aarhus\osm.net.xml"/>
    </input>

    <output>
        <output-file value="C:\Code\PolyHack2020\trafficmap\aarhus\osm.net.xml"/>
        <output.street-names value="true"/>
    </output>

    <processing>
        <geometry.min-radius.fix.railways value="false"/>
        <geometry.max-grade.fix value="false"/>
        <offset.disable-normalization value="true"/>
        <lefthand value="false"/>
    </processing>

    <junctions>
        <no-turnarounds value="true"/>
        <junctions.corner-detail value="5"/>
        <junctions.limit-turn-speed value="5.5"/>
        <rectangular-lane-cut value="false"/>
    </junctions>

    <pedestrian>
        <walkingareas value="false"/>
    </pedestrian>

    <netedit>
        <additional-files value="C:\Code\PolyHack2020\trafficmap\aarhus\taz.add.xml"/>
    </netedit>

    <report>
        <aggregate-warnings value="5"/>
    </report>

</configuration>
-->

<additional xmlns:xsi="http://www.w3.org/2001/XMLSchema-instance" xsi:noNamespaceSchemaLocation="http://sumo.dlr.de/xsd/additional_file.xsd">
    <taz id="taz_0" shape="6608.75,6649.78 6726.97,6641.90 6758.50,6817.92 6617.94,6828.43 6608.75,6649.78" color="blue">
        <tazSource id="23381030#0" weight="1.00"/>
        <tazSink id="23381030#0" weight="1.00"/>
        <tazSource id="8586269#5.136" weight="1.00"/>
        <tazSink id="8586269#5.136" weight="1.00"/>
    </taz>
    <taz id="taz_1" shape="5274.91,6631.75 5413.42,6687.68 5248.66,6958.22 5168.75,6915.61 5274.91,6631.75" color="blue">
        <tazSink id="44829596#0" weight="1.00"/>
        <tazSource id="44829596#0" weight="1.00"/>
        <tazSink id="517466668.67" weight="1.00"/>
        <tazSource id="517466668.67" weight="1.00"/>
    </taz>
    <taz id="taz_10" shape="4746.95,3761.58 4994.14,4284.64 5150.58,4347.93 5329.71,4796.95 5750.07,4859.05 5800.23,4355.10 6160.87,4086.40 6214.61,3713.81 6135.92,3749.18 6077.74,3458.29 5817.10,3919.06 5104.99,3958.63 4821.08,3732.89 4746.95,3761.58" color="blue">
        <tazSource id="-105307583#3" weight="1.00"/>
        <tazSink id="-105307583#3" weight="1.00"/>
        <tazSource id="-10999226" weight="1.00"/>
        <tazSink id="-10999226" weight="1.00"/>
        <tazSource id="-10999615#5" weight="1.00"/>
        <tazSink id="-10999615#5" weight="1.00"/>
        <tazSource id="-110788481" weight="1.00"/>
        <tazSink id="-110788481" weight="1.00"/>
        <tazSource id="-11157838#0" weight="1.00"/>
        <tazSink id="-11157838#0" weight="1.00"/>
        <tazSource id="-11157838#1" weight="1.00"/>
        <tazSink id="-11157838#1" weight="1.00"/>
        <tazSource id="-11157874" weight="1.00"/>
        <tazSink id="-11157874" weight="1.00"/>
        <tazSource id="-11158190#1" weight="1.00"/>
        <tazSink id="-11158190#1" weight="1.00"/>
        <tazSource id="-11158190#3" weight="1.00"/>
        <tazSink id="-11158190#3" weight="1.00"/>
        <tazSource id="-11158602#3" weight="1.00"/>
        <tazSink id="-11158602#3" weight="1.00"/>
        <tazSource id="-11158661#1" weight="1.00"/>
        <tazSink id="-11158661#1" weight="1.00"/>
        <tazSource id="-11158893#4" weight="1.00"/>
        <tazSink id="-11158893#4" weight="1.00"/>
        <tazSource id="-11280777#1" weight="1.00"/>
        <tazSink id="-11280777#1" weight="1.00"/>
        <tazSource id="-11280777#4" weight="1.00"/>
        <tazSink id="-11280777#4" weight="1.00"/>
        <tazSource id="-11846072#1" weight="1.00"/>
        <tazSink id="-11846072#1" weight="1.00"/>
        <tazSource id="-11846072#10" weight="1.00"/>
        <tazSink id="-11846072#10" weight="1.00"/>
        <tazSource id="-11846072#6" weight="1.00"/>
        <tazSink id="-11846072#6" weight="1.00"/>
        <tazSource id="-11846072#7" weight="1.00"/>
        <tazSink id="-11846072#7" weight="1.00"/>
        <tazSource id="-11854769" weight="1.00"/>
        <tazSink id="-11854769" weight="1.00"/>
        <tazSource id="-11854772#3" weight="1.00"/>
        <tazSink id="-11854772#3" weight="1.00"/>
        <tazSource id="-13511473#0" weight="1.00"/>
        <tazSink id="-13511473#0" weight="1.00"/>
        <tazSource id="-13511473#1" weight="1.00"/>
        <tazSink id="-13511473#1" weight="1.00"/>
        <tazSource id="-141987769#2" weight="1.00"/>
        <tazSink id="-141987769#2" weight="1.00"/>
        <tazSource id="-141987769#4" weight="1.00"/>
        <tazSink id="-141987769#4" weight="1.00"/>
        <tazSource id="-141987769#7" weight="1.00"/>
        <tazSink id="-141987769#7" weight="1.00"/>
        <tazSource id="-142691612#0" weight="1.00"/>
        <tazSink id="-142691612#0" weight="1.00"/>
        <tazSource id="-142691612#1" weight="1.00"/>
        <tazSink id="-142691612#1" weight="1.00"/>
        <tazSource id="-143718411#6" weight="1.00"/>
        <tazSink id="-143718411#6" weight="1.00"/>
        <tazSource id="-143766161#1" weight="1.00"/>
        <tazSink id="-143766161#1" weight="1.00"/>
        <tazSource id="-143766162" weight="1.00"/>
        <tazSink id="-143766162" weight="1.00"/>
        <tazSource id="-143766179#1" weight="1.00"/>
        <tazSink id="-143766179#1" weight="1.00"/>
        <tazSource id="-146224557#14" weight="1.00"/>
        <tazSink id="-146224557#14" weight="1.00"/>
        <tazSource id="-146224557#6" weight="1.00"/>
        <tazSink id="-146224557#6" weight="1.00"/>
        <tazSource id="-146224559#6" weight="1.00"/>
        <tazSink id="-146224559#6" weight="1.00"/>
        <tazSource id="-146224563#0" weight="1.00"/>
        <tazSink id="-146224563#0" weight="1.00"/>
        <tazSource id="-146224563#2" weight="1.00"/>
        <tazSink id="-146224563#2" weight="1.00"/>
        <tazSource id="-146224563#5" weight="1.00"/>
        <tazSink id="-146224563#5" weight="1.00"/>
        <tazSource id="-146224573#4" weight="1.00"/>
        <tazSink id="-146224573#4" weight="1.00"/>
        <tazSource id="-146718145" weight="1.00"/>
        <tazSink id="-146718145" weight="1.00"/>
        <tazSource id="-146842528#0" weight="1.00"/>
        <tazSink id="-146842528#0" weight="1.00"/>
        <tazSource id="-146842528#2" weight="1.00"/>
        <tazSink id="-146842528#2" weight="1.00"/>
        <tazSource id="-146842529#1" weight="1.00"/>
        <tazSink id="-146842529#1" weight="1.00"/>
        <tazSource id="-146842529#2" weight="1.00"/>
        <tazSink id="-146842529#2" weight="1.00"/>
        <tazSource id="-146842529#6" weight="1.00"/>
        <tazSink id="-146842529#6" weight="1.00"/>
        <tazSource id="-146842529#8" weight="1.00"/>
        <tazSink id="-146842529#8" weight="1.00"/>
        <tazSource id="-146925870" weight="1.00"/>
        <tazSink id="-146925870" weight="1.00"/>
        <tazSource id="-146925871" weight="1.00"/>
        <tazSink id="-146925871" weight="1.00"/>
        <tazSource id="-152008875#2" weight="1.00"/>
        <tazSink id="-152008875#2" weight="1.00"/>
        <tazSource id="-15949196#1" weight="1.00"/>
        <tazSink id="-15949196#1" weight="1.00"/>
        <tazSource id="-15949263" weight="1.00"/>
        <tazSink id="-15949263" weight="1.00"/>
        <tazSource id="-161200257#1" weight="1.00"/>
        <tazSink id="-161200257#1" weight="1.00"/>
        <tazSource id="-161200272#2" weight="1.00"/>
        <tazSink id="-161200272#2" weight="1.00"/>
        <tazSource id="-16228885#1" weight="1.00"/>
        <tazSink id="-16228885#1" weight="1.00"/>
        <tazSource id="-16806114#1" weight="1.00"/>
        <tazSink id="-16806114#1" weight="1.00"/>
        <tazSource id="-16806114#2" weight="1.00"/>
        <tazSink id="-16806114#2" weight="1.00"/>
        <tazSource id="-16806114#5" weight="1.00"/>
        <tazSink id="-16806114#5" weight="1.00"/>
        <tazSource id="-16806132#1" weight="1.00"/>
        <tazSink id="-16806132#1" weight="1.00"/>
        <tazSource id="-16806150#1" weight="1.00"/>
        <tazSink id="-16806150#1" weight="1.00"/>
        <tazSource id="-16806237#1" weight="1.00"/>
        <tazSink id="-16806237#1" weight="1.00"/>
        <tazSource id="-16806237#2" weight="1.00"/>
        <tazSink id="-16806237#2" weight="1.00"/>
        <tazSource id="-16806237#5" weight="1.00"/>
        <tazSink id="-16806237#5" weight="1.00"/>
        <tazSource id="-16806237#6" weight="1.00"/>
        <tazSink id="-16806237#6" weight="1.00"/>
        <tazSource id="-16806261#3" weight="1.00"/>
        <tazSink id="-16806261#3" weight="1.00"/>
        <tazSource id="-16806388#0" weight="1.00"/>
        <tazSink id="-16806388#0" weight="1.00"/>
        <tazSource id="-16806388#9" weight="1.00"/>
        <tazSink id="-16806388#9" weight="1.00"/>
        <tazSource id="-16945261#3" weight="1.00"/>
        <tazSink id="-16945261#3" weight="1.00"/>
        <tazSource id="-17514259" weight="1.00"/>
        <tazSink id="-17514259" weight="1.00"/>
        <tazSource id="-18489618#3" weight="1.00"/>
        <tazSink id="-18489618#3" weight="1.00"/>
        <tazSource id="-18823380" weight="1.00"/>
        <tazSink id="-18823380" weight="1.00"/>
        <tazSource id="-19752113#0" weight="1.00"/>
        <tazSink id="-19752113#0" weight="1.00"/>
        <tazSource id="-19752113#1" weight="1.00"/>
        <tazSink id="-19752113#1" weight="1.00"/>
        <tazSource id="-19752113#2" weight="1.00"/>
        <tazSink id="-19752113#2" weight="1.00"/>
        <tazSource id="-205278693" weight="1.00"/>
        <tazSink id="-205278693" weight="1.00"/>
        <tazSource id="-23246352#1" weight="1.00"/>
        <tazSink id="-23246352#1" weight="1.00"/>
        <tazSource id="-23346455#2" weight="1.00"/>
        <tazSink id="-23346455#2" weight="1.00"/>
        <tazSource id="-23678267#0" weight="1.00"/>
        <tazSink id="-23678267#0" weight="1.00"/>
        <tazSource id="-23678267#1" weight="1.00"/>
        <tazSink id="-23678267#1" weight="1.00"/>
        <tazSource id="-23825081#1" weight="1.00"/>
        <tazSink id="-23825081#1" weight="1.00"/>
        <tazSource id="-24456661#1" weight="1.00"/>
        <tazSink id="-24456661#1" weight="1.00"/>
        <tazSource id="-24456661#7" weight="1.00"/>
        <tazSink id="-24456661#7" weight="1.00"/>
        <tazSource id="-24466444#1" weight="1.00"/>
        <tazSink id="-24466444#1" weight="1.00"/>
        <tazSource id="-24767496#2" weight="1.00"/>
        <tazSink id="-24767496#2" weight="1.00"/>
        <tazSource id="-24767496#3" weight="1.00"/>
        <tazSink id="-24767496#3" weight="1.00"/>
        <tazSource id="-24767496#4" weight="1.00"/>
        <tazSink id="-24767496#4" weight="1.00"/>
        <tazSource id="-258487526#1" weight="1.00"/>
        <tazSink id="-258487526#1" weight="1.00"/>
        <tazSource id="-279057918#1" weight="1.00"/>
        <tazSink id="-279057918#1" weight="1.00"/>
        <tazSource id="-279057918#2" weight="1.00"/>
        <tazSink id="-279057918#2" weight="1.00"/>
        <tazSource id="-30981565#2" weight="1.00"/>
        <tazSink id="-30981565#2" weight="1.00"/>
        <tazSource id="-32623373#1" weight="1.00"/>
        <tazSink id="-32623373#1" weight="1.00"/>
        <tazSource id="-32637251#2" weight="1.00"/>
        <tazSink id="-32637251#2" weight="1.00"/>
        <tazSource id="-32637251#3" weight="1.00"/>
        <tazSink id="-32637251#3" weight="1.00"/>
        <tazSource id="-32637251#5" weight="1.00"/>
        <tazSink id="-32637251#5" weight="1.00"/>
        <tazSource id="-32805031" weight="1.00"/>
        <tazSink id="-32805031" weight="1.00"/>
        <tazSource id="-33282745#1" weight="1.00"/>
        <tazSink id="-33282745#1" weight="1.00"/>
        <tazSource id="-33282745#2" weight="1.00"/>
        <tazSink id="-33282745#2" weight="1.00"/>
        <tazSource id="-34246978#5" weight="1.00"/>
        <tazSink id="-34246978#5" weight="1.00"/>
        <tazSource id="-37446409#2" weight="1.00"/>
        <tazSink id="-37446409#2" weight="1.00"/>
        <tazSource id="-375938819#1" weight="1.00"/>
        <tazSink id="-375938819#1" weight="1.00"/>
        <tazSource id="-375938819#2" weight="1.00"/>
        <tazSink id="-375938819#2" weight="1.00"/>
        <tazSource id="-375938819#5" weight="1.00"/>
        <tazSink id="-375938819#5" weight="1.00"/>
        <tazSource id="-38982462#1" weight="1.00"/>
        <tazSink id="-38982462#1" weight="1.00"/>
        <tazSource id="-391157652#1" weight="1.00"/>
        <tazSink id="-391157652#1" weight="1.00"/>
        <tazSource id="-39265063#1" weight="1.00"/>
        <tazSink id="-39265063#1" weight="1.00"/>
        <tazSource id="-41834067#2" weight="1.00"/>
        <tazSink id="-41834067#2" weight="1.00"/>
        <tazSource id="-45329792" weight="1.00"/>
        <tazSink id="-45329792" weight="1.00"/>
        <tazSource id="-48889092#0" weight="1.00"/>
        <tazSink id="-48889092#0" weight="1.00"/>
        <tazSource id="-498672910" weight="1.00"/>
        <tazSink id="-498672910" weight="1.00"/>
        <tazSource id="-498672912#3" weight="1.00"/>
        <tazSink id="-498672912#3" weight="1.00"/>
        <tazSource id="-498872846" weight="1.00"/>
        <tazSink id="-498872846" weight="1.00"/>
        <tazSource id="-498918211#0" weight="1.00"/>
        <tazSink id="-498918211#0" weight="1.00"/>
        <tazSource id="-498918211#1" weight="1.00"/>
        <tazSink id="-498918211#1" weight="1.00"/>
        <tazSource id="-498918211#5" weight="1.00"/>
        <tazSink id="-498918211#5" weight="1.00"/>
        <tazSource id="-510335856#0" weight="1.00"/>
        <tazSink id="-510335856#0" weight="1.00"/>
        <tazSource id="-510335856#2" weight="1.00"/>
        <tazSink id="-510335856#2" weight="1.00"/>
        <tazSource id="-51355744" weight="1.00"/>
        <tazSink id="-51355744" weight="1.00"/>
        <tazSource id="-51356220#2" weight="1.00"/>
        <tazSink id="-51356220#2" weight="1.00"/>
        <tazSource id="-522719365" weight="1.00"/>
        <tazSink id="-522719365" weight="1.00"/>
        <tazSource id="-522719388" weight="1.00"/>
        <tazSink id="-522719388" weight="1.00"/>
        <tazSource id="-548698207#2" weight="1.00"/>
        <tazSink id="-548698207#2" weight="1.00"/>
        <tazSource id="-56201742#3" weight="1.00"/>
        <tazSink id="-56201742#3" weight="1.00"/>
        <tazSource id="-620184201#1" weight="1.00"/>
        <tazSink id="-620184201#1" weight="1.00"/>
        <tazSource id="-627088904#3" weight="1.00"/>
        <tazSink id="-627088904#3" weight="1.00"/>
        <tazSource id="-723877622#0" weight="1.00"/>
        <tazSink id="-723877622#0" weight="1.00"/>
        <tazSource id="-723877622#1" weight="1.00"/>
        <tazSink id="-723877622#1" weight="1.00"/>
        <tazSource id="-77112774#8" weight="1.00"/>
        <tazSink id="-77112774#8" weight="1.00"/>
        <tazSource id="-77491278#0" weight="1.00"/>
        <tazSink id="-77491278#0" weight="1.00"/>
        <tazSource id="-77491278#1" weight="1.00"/>
        <tazSink id="-77491278#1" weight="1.00"/>
        <tazSource id="-77491278#3" weight="1.00"/>
        <tazSink id="-77491278#3" weight="1.00"/>
        <tazSource id="-77491280#0" weight="1.00"/>
        <tazSink id="-77491280#0" weight="1.00"/>
        <tazSource id="-77491280#2" weight="1.00"/>
        <tazSink id="-77491280#2" weight="1.00"/>
        <tazSource id="-77491280#5" weight="1.00"/>
        <tazSink id="-77491280#5" weight="1.00"/>
        <tazSource id="-78045935#1" weight="1.00"/>
        <tazSink id="-78045935#1" weight="1.00"/>
        <tazSource id="-78045936#1" weight="1.00"/>
        <tazSink id="-78045936#1" weight="1.00"/>
        <tazSource id="-78045936#3" weight="1.00"/>
        <tazSink id="-78045936#3" weight="1.00"/>
        <tazSource id="-78045936#6" weight="1.00"/>
        <tazSink id="-78045936#6" weight="1.00"/>
        <tazSource id="-78045936#8" weight="1.00"/>
        <tazSink id="-78045936#8" weight="1.00"/>
        <tazSource id="-78046225" weight="1.00"/>
        <tazSink id="-78046225" weight="1.00"/>
        <tazSource id="-78046226" weight="1.00"/>
        <tazSink id="-78046226" weight="1.00"/>
        <tazSource id="-79825369#12" weight="1.00"/>
        <tazSink id="-79825369#12" weight="1.00"/>
        <tazSource id="-79825369#27" weight="1.00"/>
        <tazSink id="-79825369#27" weight="1.00"/>
        <tazSource id="-79825369#29" weight="1.00"/>
        <tazSink id="-79825369#29" weight="1.00"/>
        <tazSource id="-8060148#2" weight="1.00"/>
        <tazSink id="-8060148#2" weight="1.00"/>
        <tazSource id="-8060148#4" weight="1.00"/>
        <tazSink id="-8060148#4" weight="1.00"/>
        <tazSource id="-8060148#5" weight="1.00"/>
        <tazSink id="-8060148#5" weight="1.00"/>
        <tazSource id="-80651911#0" weight="1.00"/>
        <tazSink id="-80651911#0" weight="1.00"/>
        <tazSource id="-80651911#1" weight="1.00"/>
        <tazSink id="-80651911#1" weight="1.00"/>
        <tazSource id="-80651911#3" weight="1.00"/>
        <tazSink id="-80651911#3" weight="1.00"/>
        <tazSource id="-82936211" weight="1.00"/>
        <tazSink id="-82936211" weight="1.00"/>
        <tazSource id="-835345333" weight="1.00"/>
        <tazSink id="-835345333" weight="1.00"/>
        <tazSource id="-9367594#1" weight="1.00"/>
        <tazSink id="-9367594#1" weight="1.00"/>
        <tazSource id="-9411707#2" weight="1.00"/>
        <tazSink id="-9411707#2" weight="1.00"/>
        <tazSource id="-9411818#1" weight="1.00"/>
        <tazSink id="-9411818#1" weight="1.00"/>
        <tazSource id="103817041#0" weight="1.00"/>
        <tazSink id="103817041#0" weight="1.00"/>
        <tazSource id="103817041#1" weight="1.00"/>
        <tazSink id="103817041#1" weight="1.00"/>
        <tazSource id="104051544#0" weight="1.00"/>
        <tazSink id="104051544#0" weight="1.00"/>
        <tazSource id="104051544#2" weight="1.00"/>
        <tazSink id="104051544#2" weight="1.00"/>
        <tazSource id="104051544#3" weight="1.00"/>
        <tazSink id="104051544#3" weight="1.00"/>
        <tazSource id="104051544#4" weight="1.00"/>
        <tazSink id="104051544#4" weight="1.00"/>
        <tazSource id="105307583#0" weight="1.00"/>
        <tazSink id="105307583#0" weight="1.00"/>
        <tazSource id="106579648#1" weight="1.00"/>
        <tazSink id="106579648#1" weight="1.00"/>
        <tazSource id="106622605" weight="1.00"/>
        <tazSink id="106622605" weight="1.00"/>
        <tazSource id="107620891#0" weight="1.00"/>
        <tazSink id="107620891#0" weight="1.00"/>
        <tazSource id="10999137" weight="1.00"/>
        <tazSink id="10999137" weight="1.00"/>
        <tazSource id="10999180#1" weight="1.00"/>
        <tazSink id="10999180#1" weight="1.00"/>
        <tazSource id="10999226" weight="1.00"/>
        <tazSink id="10999226" weight="1.00"/>
        <tazSource id="10999615#0" weight="1.00"/>
        <tazSink id="10999615#0" weight="1.00"/>
        <tazSource id="11157431#0" weight="1.00"/>
        <tazSink id="11157431#0" weight="1.00"/>
        <tazSource id="11157431#1" weight="1.00"/>
        <tazSink id="11157431#1" weight="1.00"/>
        <tazSource id="11157431#2" weight="1.00"/>
        <tazSink id="11157431#2" weight="1.00"/>
        <tazSource id="11157601#0" weight="1.00"/>
        <tazSink id="11157601#0" weight="1.00"/>
        <tazSource id="11157601#3" weight="1.00"/>
        <tazSink id="11157601#3" weight="1.00"/>
        <tazSource id="11157758" weight="1.00"/>
        <tazSink id="11157758" weight="1.00"/>
        <tazSource id="11157806#0" weight="1.00"/>
        <tazSink id="11157806#0" weight="1.00"/>
        <tazSource id="11157806#1" weight="1.00"/>
        <tazSink id="11157806#1" weight="1.00"/>
        <tazSource id="11157838#0" weight="1.00"/>
        <tazSink id="11157838#0" weight="1.00"/>
        <tazSource id="11157838#1" weight="1.00"/>
        <tazSink id="11157838#1" weight="1.00"/>
        <tazSource id="11157874" weight="1.00"/>
        <tazSink id="11157874" weight="1.00"/>
        <tazSource id="11158190#0" weight="1.00"/>
        <tazSink id="11158190#0" weight="1.00"/>
        <tazSource id="11158190#2" weight="1.00"/>
        <tazSink id="11158190#2" weight="1.00"/>
        <tazSource id="11158362" weight="1.00"/>
        <tazSink id="11158362" weight="1.00"/>
        <tazSource id="11158602#0" weight="1.00"/>
        <tazSink id="11158602#0" weight="1.00"/>
        <tazSource id="11158661#0" weight="1.00"/>
        <tazSink id="11158661#0" weight="1.00"/>
        <tazSource id="11158893#0" weight="1.00"/>
        <tazSink id="11158893#0" weight="1.00"/>
        <tazSource id="11280777#0" weight="1.00"/>
        <tazSink id="11280777#0" weight="1.00"/>
        <tazSource id="11280777#2" weight="1.00"/>
        <tazSink id="11280777#2" weight="1.00"/>
        <tazSource id="11281045#0" weight="1.00"/>
        <tazSink id="11281045#0" weight="1.00"/>
        <tazSource id="11281439#0" weight="1.00"/>
        <tazSink id="11281439#0" weight="1.00"/>
        <tazSource id="11846072#0" weight="1.00"/>
        <tazSink id="11846072#0" weight="1.00"/>
        <tazSource id="11846072#2" weight="1.00"/>
        <tazSink id="11846072#2" weight="1.00"/>
        <tazSource id="11846072#7" weight="1.00"/>
        <tazSink id="11846072#7" weight="1.00"/>
        <tazSource id="11846072#8" weight="1.00"/>
        <tazSink id="11846072#8" weight="1.00"/>
        <tazSource id="11854769" weight="1.00"/>
        <tazSink id="11854769" weight="1.00"/>
        <tazSource id="11854772#0" weight="1.00"/>
        <tazSink id="11854772#0" weight="1.00"/>
        <tazSource id="11854774#0" weight="1.00"/>
        <tazSink id="11854774#0" weight="1.00"/>
        <tazSource id="13511380#0" weight="1.00"/>
        <tazSink id="13511380#0" weight="1.00"/>
        <tazSource id="13511473#0" weight="1.00"/>
        <tazSink id="13511473#0" weight="1.00"/>
        <tazSource id="13511473#1" weight="1.00"/>
        <tazSink id="13511473#1" weight="1.00"/>
        <tazSource id="141987769#0" weight="1.00"/>
        <tazSink id="141987769#0" weight="1.00"/>
        <tazSource id="141987769#4" weight="1.00"/>
        <tazSink id="141987769#4" weight="1.00"/>
        <tazSource id="141987769#5" weight="1.00"/>
        <tazSink id="141987769#5" weight="1.00"/>
        <tazSource id="142691612#1" weight="1.00"/>
        <tazSink id="142691612#1" weight="1.00"/>
        <tazSource id="143718411#0" weight="1.00"/>
        <tazSink id="143718411#0" weight="1.00"/>
        <tazSource id="143766161#0" weight="1.00"/>
        <tazSink id="143766161#0" weight="1.00"/>
        <tazSource id="143766162" weight="1.00"/>
        <tazSink id="143766162" weight="1.00"/>
        <tazSource id="143766179#0" weight="1.00"/>
        <tazSink id="143766179#0" weight="1.00"/>
        <tazSource id="146224557#2" weight="1.00"/>
        <tazSink id="146224557#2" weight="1.00"/>
        <tazSource id="146224557#7" weight="1.00"/>
        <tazSink id="146224557#7" weight="1.00"/>
        <tazSource id="146224559#0" weight="1.00"/>
        <tazSink id="146224559#0" weight="1.00"/>
        <tazSource id="146224563#0" weight="1.00"/>
        <tazSink id="146224563#0" weight="1.00"/>
        <tazSource id="146224563#1" weight="1.00"/>
        <tazSink id="146224563#1" weight="1.00"/>
        <tazSource id="146224563#3" weight="1.00"/>
        <tazSink id="146224563#3" weight="1.00"/>
        <tazSource id="146224573#0" weight="1.00"/>
        <tazSink id="146224573#0" weight="1.00"/>
        <tazSource id="146718145" weight="1.00"/>
        <tazSink id="146718145" weight="1.00"/>
        <tazSource id="146842528#0" weight="1.00"/>
        <tazSink id="146842528#0" weight="1.00"/>
        <tazSource id="146842528#1" weight="1.00"/>
        <tazSink id="146842528#1" weight="1.00"/>
        <tazSource id="146842529#0" weight="1.00"/>
        <tazSink id="146842529#0" weight="1.00"/>
        <tazSource id="146842529#2" weight="1.00"/>
        <tazSink id="146842529#2" weight="1.00"/>
        <tazSource id="146842529#4" weight="1.00"/>
        <tazSink id="146842529#4" weight="1.00"/>
        <tazSource id="146842529#7" weight="1.00"/>
        <tazSink id="146842529#7" weight="1.00"/>
        <tazSource id="146925870" weight="1.00"/>
        <tazSink id="146925870" weight="1.00"/>
        <tazSource id="146925871" weight="1.00"/>
        <tazSink id="146925871" weight="1.00"/>
        <tazSource id="152008875#0" weight="1.00"/>
        <tazSink id="152008875#0" weight="1.00"/>
        <tazSource id="15949196#0" weight="1.00"/>
        <tazSink id="15949196#0" weight="1.00"/>
        <tazSource id="15949263" weight="1.00"/>
        <tazSink id="15949263" weight="1.00"/>
        <tazSource id="15950492" weight="1.00"/>
        <tazSink id="15950492" weight="1.00"/>
        <tazSource id="161200257#0" weight="1.00"/>
        <tazSink id="161200257#0" weight="1.00"/>
        <tazSource id="161200272#0" weight="1.00"/>
        <tazSink id="161200272#0" weight="1.00"/>
        <tazSource id="16228538#0" weight="1.00"/>
        <tazSink id="16228538#0" weight="1.00"/>
        <tazSource id="16228828#0" weight="1.00"/>
        <tazSink id="16228828#0" weight="1.00"/>
        <tazSource id="16228828#2" weight="1.00"/>
        <tazSink id="16228828#2" weight="1.00"/>
        <tazSource id="16228885#0" weight="1.00"/>
        <tazSink id="16228885#0" weight="1.00"/>
        <tazSource id="16229068#1" weight="1.00"/>
        <tazSink id="16229068#1" weight="1.00"/>
        <tazSource id="16806114#0" weight="1.00"/>
        <tazSink id="16806114#0" weight="1.00"/>
        <tazSource id="16806114#2" weight="1.00"/>
        <tazSink id="16806114#2" weight="1.00"/>
        <tazSource id="16806114#3" weight="1.00"/>
        <tazSink id="16806114#3" weight="1.00"/>
        <tazSource id="16806132#0" weight="1.00"/>
        <tazSink id="16806132#0" weight="1.00"/>
        <tazSource id="16806150#0" weight="1.00"/>
        <tazSink id="16806150#0" weight="1.00"/>
        <tazSource id="16806237#0" weight="1.00"/>
        <tazSink id="16806237#0" weight="1.00"/>
        <tazSource id="16806237#2" weight="1.00"/>
        <tazSink id="16806237#2" weight="1.00"/>
        <tazSource id="16806237#3" weight="1.00"/>
        <tazSink id="16806237#3" weight="1.00"/>
        <tazSource id="16806237#6" weight="1.00"/>
        <tazSink id="16806237#6" weight="1.00"/>
        <tazSource id="16806261#0" weight="1.00"/>
        <tazSink id="16806261#0" weight="1.00"/>
        <tazSource id="16806388#0" weight="1.00"/>
        <tazSink id="16806388#0" weight="1.00"/>
        <tazSource id="16806388#1" weight="1.00"/>
        <tazSink id="16806388#1" weight="1.00"/>
        <tazSource id="16945261#0" weight="1.00"/>
        <tazSink id="16945261#0" weight="1.00"/>
        <tazSource id="16945274#0" weight="1.00"/>
        <tazSink id="16945274#0" weight="1.00"/>
        <tazSource id="17514259" weight="1.00"/>
        <tazSink id="17514259" weight="1.00"/>
        <tazSource id="18489618#3" weight="1.00"/>
        <tazSink id="18489618#3" weight="1.00"/>
        <tazSource id="18823380" weight="1.00"/>
        <tazSink id="18823380" weight="1.00"/>
        <tazSource id="18930278#0" weight="1.00"/>
        <tazSink id="18930278#0" weight="1.00"/>
        <tazSource id="18930820" weight="1.00"/>
        <tazSink id="18930820" weight="1.00"/>
        <tazSource id="19752113#0" weight="1.00"/>
        <tazSink id="19752113#0" weight="1.00"/>
        <tazSource id="19752113#1" weight="1.00"/>
        <tazSink id="19752113#1" weight="1.00"/>
        <tazSource id="19752113#2" weight="1.00"/>
        <tazSink id="19752113#2" weight="1.00"/>
        <tazSource id="205278693" weight="1.00"/>
        <tazSink id="205278693" weight="1.00"/>
        <tazSource id="23246352#0" weight="1.00"/>
        <tazSink id="23246352#0" weight="1.00"/>
        <tazSource id="23346162#0" weight="1.00"/>
        <tazSink id="23346162#0" weight="1.00"/>
        <tazSource id="23444443" weight="1.00"/>
        <tazSink id="23444443" weight="1.00"/>
        <tazSource id="23444516#0" weight="1.00"/>
        <tazSink id="23444516#0" weight="1.00"/>
        <tazSource id="23444532" weight="1.00"/>
        <tazSink id="23444532" weight="1.00"/>
        <tazSource id="23678267#0" weight="1.00"/>
        <tazSink id="23678267#0" weight="1.00"/>
        <tazSource id="23678267#1" weight="1.00"/>
        <tazSink id="23678267#1" weight="1.00"/>
        <tazSource id="23825431#0" weight="1.00"/>
        <tazSink id="23825431#0" weight="1.00"/>
        <tazSource id="23825431#1" weight="1.00"/>
        <tazSink id="23825431#1" weight="1.00"/>
        <tazSource id="23843497" weight="1.00"/>
        <tazSink id="23843497" weight="1.00"/>
        <tazSource id="24244383" weight="1.00"/>
        <tazSink id="24244383" weight="1.00"/>
        <tazSource id="24456661#0" weight="1.00"/>
        <tazSink id="24456661#0" weight="1.00"/>
        <tazSource id="24456661#2" weight="1.00"/>
        <tazSink id="24456661#2" weight="1.00"/>
        <tazSource id="24466444#0" weight="1.00"/>
        <tazSink id="24466444#0" weight="1.00"/>
        <tazSource id="24767496#1" weight="1.00"/>
        <tazSink id="24767496#1" weight="1.00"/>
        <tazSource id="24767496#3" weight="1.00"/>
        <tazSink id="24767496#3" weight="1.00"/>
        <tazSource id="24767496#4" weight="1.00"/>
        <tazSink id="24767496#4" weight="1.00"/>
        <tazSource id="279057918#0" weight="1.00"/>
        <tazSink id="279057918#0" weight="1.00"/>